  Compiling CUDA source file ..\source\JSphGpu_NN_ker.cu...
  Skipping CUDA source file ..\source\JSphGpu_InOut_ker.cu (excluded from build).
  
  C:\Users\Zhitian Qiao\Desktop\DualSPHysics_v5.0\src_mphase\DSPH_v5.0_NNewtonian\VS>"C:\Program Files\NVIDIA GPU Computing Toolkit\CUDA\v9.2\bin\nvcc.exe" -gencode=arch=compute_52,code=\"sm_52,compute_52\" --use-local-env -ccbin "E:\VS2015\VC\bin\x86_amd64" -x cu  -I"C:\Program Files\NVIDIA GPU Computing Toolkit\CUDA\v9.2\include" -I"C:\Program Files\NVIDIA GPU Computing Toolkit\CUDA\v9.2\include"  -G   --keep-dir x64\DebugGPU -maxrregcount=0  --machine 64 --compile -cudart static      -Xcompiler "/EHsc /W1 /nologo /O2 /Fdx64\DebugGPU\vc140.pdb /FS /Zi  /MD " -o x64\DebugGPU\JSphGpu_NN_ker.cu.obj "C:\Users\Zhitian Qiao\Desktop\DualSPHysics_v5.0\src_mphase\DSPH_v5.0_NNewtonian\source\JSphGpu_NN_ker.cu" 
c:\users\zhitian qiao\desktop\dualsphysics_v5.0\src_mphase\dsph_v5.0_nnewtonian\source\JSphGpu_NN_ker.h(40): error : identifier "StInterParmsg" is undefined
C:/Users/Zhitian Qiao/Desktop/DualSPHysics_v5.0/src_mphase/DSPH_v5.0_NNewtonian/source/JSphGpu_NN_ker.cu(78): error : identifier "CTE" is undefined
C:/Users/Zhitian Qiao/Desktop/DualSPHysics_v5.0/src_mphase/DSPH_v5.0_NNewtonian/source/JSphGpu_NN_ker.cu(730): error : identifier "StInterParmsg" is undefined
C:/Users/Zhitian Qiao/Desktop/DualSPHysics_v5.0/src_mphase/DSPH_v5.0_NNewtonian/source/JSphGpu_NN_ker.cu(1403): error : identifier "StInterParmsg" is undefined
C:/Users/Zhitian Qiao/Desktop/DualSPHysics_v5.0/src_mphase/DSPH_v5.0_NNewtonian/source/JSphGpu_NN_ker.cu(1591): error : identifier "StInterParmsg" is undefined
C:/Users/Zhitian Qiao/Desktop/DualSPHysics_v5.0/src_mphase/DSPH_v5.0_NNewtonian/source/JSphGpu_NN_ker.cu(1601): error : identifier "StInterParmsg" is undefined
C:/Users/Zhitian Qiao/Desktop/DualSPHysics_v5.0/src_mphase/DSPH_v5.0_NNewtonian/source/JSphGpu_NN_ker.cu(1623): error : identifier "StInterParmsg" is undefined
C:/Users/Zhitian Qiao/Desktop/DualSPHysics_v5.0/src_mphase/DSPH_v5.0_NNewtonian/source/JSphGpu_NN_ker.cu(1635): error : identifier "StInterParmsg" is undefined
C:/Users/Zhitian Qiao/Desktop/DualSPHysics_v5.0/src_mphase/DSPH_v5.0_NNewtonian/source/JSphGpu_NN_ker.cu(1646): error : identifier "StInterParmsg" is undefined
  JSphGpu_NN_ker.cu
C:\Program Files (x86)\MSBuild\Microsoft.Cpp\v4.0\V140\BuildCustomizations\CUDA 9.2.targets(712,9): error MSB3721: The command ""C:\Program Files\NVIDIA GPU Computing Toolkit\CUDA\v9.2\bin\nvcc.exe" -gencode=arch=compute_52,code=\"sm_52,compute_52\" --use-local-env -ccbin "E:\VS2015\VC\bin\x86_amd64" -x cu  -I"C:\Program Files\NVIDIA GPU Computing Toolkit\CUDA\v9.2\include" -I"C:\Program Files\NVIDIA GPU Computing Toolkit\CUDA\v9.2\include"  -G   --keep-dir x64\DebugGPU -maxrregcount=0  --machine 64 --compile -cudart static      -Xcompiler "/EHsc /W1 /nologo /O2 /Fdx64\DebugGPU\vc140.pdb /FS /Zi  /MD " -o x64\DebugGPU\JSphGpu_NN_ker.cu.obj "C:\Users\Zhitian Qiao\Desktop\DualSPHysics_v5.0\src_mphase\DSPH_v5.0_NNewtonian\source\JSphGpu_NN_ker.cu"" exited with code 1.
